/*--------------------------------*- C++ -*----------------------------------*\
  =========                 |
  \\      /  F ield         | OpenFOAM: The Open Source CFD Toolbox
   \\    /   O peration     | Website:  https://openfoam.org
    \\  /    A nd           | Version:  9
     \\/     M anipulation  |
\*---------------------------------------------------------------------------*/
FoamFile
{
    version     2.0;
    format      ascii;
    class       volScalarField;
	   ocation    "0/metalArea";
    object      T;
}
// * * * * * * * * * * * * * * * * * * * * * * * * * * * * * * * * * * * * * //
#include "../../constant/metalHydrideSettings";

dimensions      [0 0 0 1 0 0 0];

internalField   uniform 293.15;

boundaryField
{
    tankWall
    {
      type                groovyBC;
      variables           "k_eff=$epsilon_metal*$k_hydrogen+(1-$epsilon_metal)*$k_metal;";
      valueExpression     "340";
      gradientExpression  "0";
      fractionExpression  "1/(1+(k_eff/($h_metal*mag(delta())))*(($k_wall+$h_metal*$delta_wall)/$k_wall))";
      value               $internalField;
    }

    "(front|back)"
    {
        type            wedge;
    }

    metalArea_to_hydrogenArea
    {
        type            fixedValue;
        value           $internalField;
    }
}

// ************************************************************************* //
