/*--------------------------------*- C++ -*----------------------------------*\
  =========                 |
  \\      /  F ield         | OpenFOAM: The Open Source CFD Toolbox
   \\    /   O peration     | Website:  https://openfoam.org
    \\  /    A nd           | Version:  8
     \\/     M anipulation  |
\*---------------------------------------------------------------------------*/
FoamFile
{
    version     2.0;
    format      ascii;
    class       dictionary;
    location    "system";
    object      fvSolution;
}
// * * * * * * * * * * * * * * * * * * * * * * * * * * * * * * * * * * * * * //

solvers
{
    "(p|rho.*|T)"
    {
        solver            PBiCGStab;
        preconditioner    DILU;
        tolerance         1e-7;
        relTol            0.1;
    }
}

SIMPLE
{
    nNonOrthogonalCorrectors 0;
}

// ************************************************************************* //
